
  Mrv0541 02231217282D          

 12 12  0  0  1  0            999 V2000
    1.4652   -0.8227    0.0000 C   0  0  0  0  0  0  0  0  0  0  0  0
    0.9803   -0.1553    0.0000 N   0  0  0  0  0  0  0  0  0  0  0  0
    0.1553   -0.1553    0.0000 C   0  0  0  0  0  0  0  0  0  0  0  0
   -0.0997    0.6294    0.0000 N   0  0  0  0  0  0  0  0  0  0  0  0
    0.5678    1.1143    0.0000 C   0  0  0  0  0  0  0  0  0  0  0  0
    0.5678    1.9393    0.0000 C   0  0  0  0  0  0  0  0  0  0  0  0
   -0.1467    2.3518    0.0000 C   0  0  2  0  0  0  0  0  0  0  0  0
   -0.8612    1.9393    0.0000 N   0  0  0  0  0  0  0  0  0  0  0  0
   -0.1467    3.1768    0.0000 C   0  0  0  0  0  0  0  0  0  0  0  0
   -0.8612    3.5893    0.0000 O   0  0  0  0  0  0  0  0  0  0  0  0
    0.5678    3.5893    0.0000 O   0  0  0  0  0  0  0  0  0  0  0  0
    1.2352    0.6294    0.0000 C   0  0  0  0  0  0  0  0  0  0  0  0
  1  2  1  0  0  0  0
  2  3  1  0  0  0  0
  3  4  2  0  0  0  0
  4  5  1  0  0  0  0
  5  6  1  0  0  0  0
  6  7  1  0  0  0  0
  7  8  1  6  0  0  0
  7  9  1  0  0  0  0
  9 10  1  0  0  0  0
  9 11  2  0  0  0  0
  5 12  2  0  0  0  0
  2 12  1  0  0  0  0
M  END
> <DATABASE_ID>
HMDB0000001

> <DATABASE_NAME>
hmdb

> <SMILES>
CN1C=NC(C[C@H](N)C(O)=O)=C1

> <INCHI_IDENTIFIER>
InChI=1S/C7H11N3O2/c1-10-3-5(9-4-10)2-6(8)7(11)12/h3-4,6H,2,8H2,1H3,(H,11,12)/t6-/m0/s1

> <INCHI_KEY>
BRMWTNUJHUMWMS-LURJTMIESA-N

> <FORMULA>
C7H11N3O2

> <MOLECULAR_WEIGHT>
169.1811

> <EXACT_MASS>
169.085126611

> <JCHEM_ACCEPTOR_COUNT>
4

> <JCHEM_AVERAGE_POLARIZABILITY>
17.110928254345183

> <JCHEM_BIOAVAILABILITY>
1

> <JCHEM_DONOR_COUNT>
2

> <JCHEM_FORMAL_CHARGE>
0

> <JCHEM_GHOSE_FILTER>
0

> <JCHEM_IUPAC>
(2S)-2-amino-3-(1-methyl-1H-imidazol-4-yl)propanoic acid

> <ALOGPS_LOGP>
-2.95

> <JCHEM_LOGP>
-3.0704187479965057

> <ALOGPS_LOGS>
-1.39

> <JCHEM_MDDR_LIKE_RULE>
0

> <JCHEM_NUMBER_OF_RINGS>
1

> <JCHEM_PHYSIOLOGICAL_CHARGE>
0

> <JCHEM_PKA_STRONGEST_ACIDIC>
1.9645875066516765

> <JCHEM_PKA_STRONGEST_BASIC>
9.2503166513801

> <JCHEM_POLAR_SURFACE_AREA>
81.14000000000001

> <JCHEM_REFRACTIVITY>
42.39000000000001

> <JCHEM_ROTATABLE_BOND_COUNT>
3

> <JCHEM_RULE_OF_FIVE>
1

> <ALOGPS_SOLUBILITY>
6.93e+00 g/l

> <JCHEM_TRADITIONAL_IUPAC>
1 methylhistidine

> <JCHEM_VEBER_RULE>
0

> <HMDB_ID>
HMDB0000001

> <GENERIC_NAME>
1-Methylhistidine

> <SYNONYMS>
1 Methylhistidine; 1-Methyl histidine; 1-Methyl-Histidine; 1-Methyl-L-histidine; 1-MHis; 1-N-Methyl-L-histidine; L-1-Methylhistidine; N1-Methyl-L-histidine; Pi-methylhistidine

$$$$
1,3-Diaminopropane.mol
  Mrv0541 02231218172D          

  5  4  0  0  0  0            999 V2000
   -0.7144    0.2063    0.0000 C   0  0  0  0  0  0  0  0  0  0  0  0
    0.0000   -0.2063    0.0000 C   0  0  0  0  0  0  0  0  0  0  0  0
    0.7144    0.2063    0.0000 C   0  0  0  0  0  0  0  0  0  0  0  0
    1.4288   -0.2062    0.0000 N   0  0  0  0  0  0  0  0  0  0  0  0
   -1.4288   -0.2063    0.0000 N   0  0  0  0  0  0  0  0  0  0  0  0
  1  2  1  0  0  0  0
  2  3  1  0  0  0  0
  3  4  1  0  0  0  0
  1  5  1  0  0  0  0
M  END
> <DATABASE_ID>
HMDB0000002

> <DATABASE_NAME>
hmdb

> <SMILES>
NCCCN

> <INCHI_IDENTIFIER>
InChI=1S/C3H10N2/c4-2-1-3-5/h1-5H2

> <INCHI_KEY>
XFNJVJPLKCPIBV-UHFFFAOYSA-N

> <FORMULA>
C3H10N2

> <MOLECULAR_WEIGHT>
74.1249

> <EXACT_MASS>
74.08439833

> <JCHEM_ACCEPTOR_COUNT>
2

> <JCHEM_AVERAGE_POLARIZABILITY>
9.059383875573541

> <JCHEM_BIOAVAILABILITY>
1

> <JCHEM_DONOR_COUNT>
2

> <JCHEM_FORMAL_CHARGE>
0

> <JCHEM_GHOSE_FILTER>
0

> <JCHEM_IUPAC>
propane-1,3-diamine

> <ALOGPS_LOGP>
-1.41

> <JCHEM_LOGP>
-1.362482935

> <ALOGPS_LOGS>
0.77

> <JCHEM_MDDR_LIKE_RULE>
0

> <JCHEM_NUMBER_OF_RINGS>
0

> <JCHEM_PHYSIOLOGICAL_CHARGE>
2

> <JCHEM_PKA_STRONGEST_BASIC>
10.469241483553525

> <JCHEM_POLAR_SURFACE_AREA>
52.04

> <JCHEM_REFRACTIVITY>
22.734

> <JCHEM_ROTATABLE_BOND_COUNT>
2

> <JCHEM_RULE_OF_FIVE>
1

> <ALOGPS_SOLUBILITY>
4.37e+02 g/l

> <JCHEM_TRADITIONAL_IUPAC>
α,ω-propanediamine

> <JCHEM_VEBER_RULE>
0

> <HMDB_ID>
HMDB0000002

> <GENERIC_NAME>
1,3-Diaminopropane

> <SYNONYMS>
1,3-Diamino-N-propane; 1,3-Propanediamine; 1,3-Propylenediamine; 1,3-Trimethylenediamine; 3-Aminopropylamine; a,w-Propanediamine; Propane-1,3-diamine; Trimethylenediamine

$$$$

  Mrv0541 02231217452D          

  7  6  0  0  0  0            999 V2000
    1.2375    2.1434    0.0000 C   0  0  0  0  0  0  0  0  0  0  0  0
    0.8250    1.4289    0.0000 C   0  0  0  0  0  0  0  0  0  0  0  0
    1.2375    0.7145    0.0000 C   0  0  0  0  0  0  0  0  0  0  0  0
    2.0625    0.7145    0.0000 O   0  0  0  0  0  0  0  0  0  0  0  0
    0.8250    0.0000    0.0000 C   0  0  0  0  0  0  0  0  0  0  0  0
    1.2375   -0.7145    0.0000 O   0  0  0  0  0  0  0  0  0  0  0  0
    0.0000    0.0000    0.0000 O   0  0  0  0  0  0  0  0  0  0  0  0
  1  2  1  0  0  0  0
  2  3  1  0  0  0  0
  3  4  2  0  0  0  0
  3  5  1  0  0  0  0
  5  6  1  0  0  0  0
  5  7  2  0  0  0  0
M  END
> <DATABASE_ID>
HMDB0000005

> <DATABASE_NAME>
hmdb

> <SMILES>
CCC(=O)C(O)=O

> <INCHI_IDENTIFIER>
InChI=1S/C4H6O3/c1-2-3(5)4(6)7/h2H2,1H3,(H,6,7)

> <INCHI_KEY>
TYEYBOSBBBHJIV-UHFFFAOYSA-N

> <FORMULA>
C4H6O3

> <MOLECULAR_WEIGHT>
102.0886

> <EXACT_MASS>
102.031694058

> <JCHEM_ACCEPTOR_COUNT>
3

> <JCHEM_AVERAGE_POLARIZABILITY>
9.19944558001248

> <JCHEM_BIOAVAILABILITY>
1

> <JCHEM_DONOR_COUNT>
1

> <JCHEM_FORMAL_CHARGE>
0

> <JCHEM_GHOSE_FILTER>
0

> <JCHEM_IUPAC>
2-oxobutanoic acid

> <ALOGPS_LOGP>
0.07

> <JCHEM_LOGP>
0.7664098003333332

> <ALOGPS_LOGS>
-0.11

> <JCHEM_MDDR_LIKE_RULE>
0

> <JCHEM_NUMBER_OF_RINGS>
0

> <JCHEM_PHYSIOLOGICAL_CHARGE>
-1

> <JCHEM_PKA_STRONGEST_ACIDIC>
3.1869864284881544

> <JCHEM_PKA_STRONGEST_BASIC>
-9.650960797412663

> <JCHEM_POLAR_SURFACE_AREA>
54.37

> <JCHEM_REFRACTIVITY>
22.616600000000002

> <JCHEM_ROTATABLE_BOND_COUNT>
2

> <JCHEM_RULE_OF_FIVE>
1

> <ALOGPS_SOLUBILITY>
7.92e+01 g/l

> <JCHEM_TRADITIONAL_IUPAC>
2-oxobutanoic acid

> <JCHEM_VEBER_RULE>
0

> <HMDB_ID>
HMDB0000005

> <GENERIC_NAME>
2-Ketobutyric acid

> <SYNONYMS>
2-Ketobutanoate; 2-Ketobutanoic acid; 2-Ketobutyrate; 2-Oxo-Butanoate; 2-Oxo-Butanoic acid; 2-Oxo-Butyrate; 2-Oxo-Butyric acid; 2-Oxo-N-butyrate; 2-Oxo-N-butyric acid; 2-Oxobutanoate; 2-Oxobutanoic acid; 2-Oxobutyrate; 2-Oxobutyric acid; 3-Methylpyruvate; 3-Methylpyruvic acid; a-Keto-N-Butyrate; a-Keto-N-Butyric acid; a-Ketobutyrate; a-Ketobutyric acid; a-Oxo-N-butyrate; a-Oxo-N-butyric acid; a-Oxobutyrate; a-Oxobutyric acid; alpha-Keto-N-butyrate; alpha-Keto-N-butyric acid; alpha-Ketobutric acid; alpha-Ketobutyrate; alpha-Ketobutyric acid; alpha-Oxo-N-butyrate; alpha-Oxo-N-butyric acid; alpha-Oxobutyrate; alpha-Oxobutyric acid; Methyl-Pyruvate; Methyl-Pyruvic acid; Propionyl-formate; Propionyl-formic acid

$$$$

  Mrv0541 02231218172D          

  7  6  0  0  0  0            999 V2000
   18.0690  -10.4198    0.0000 O   0  0  0  0  0  0  0  0  0  0  0  0
   20.2125  -10.8323    0.0000 O   0  0  0  0  0  0  0  0  0  0  0  0
   19.4980   -9.5948    0.0000 O   0  0  0  0  0  0  0  0  0  0  0  0
   18.7835  -11.6573    0.0000 C   0  0  0  0  0  0  0  0  0  0  0  0
   18.7835  -10.8323    0.0000 C   0  0  0  0  0  0  0  0  0  0  0  0
   18.0690  -12.0698    0.0000 C   0  0  0  0  0  0  0  0  0  0  0  0
   19.4980  -10.4198    0.0000 C   0  0  0  0  0  0  0  0  0  0  0  0
  1  5  1  0  0  0  0
  2  7  1  0  0  0  0
  3  7  2  0  0  0  0
  4  5  1  0  0  0  0
  4  6  1  0  0  0  0
  5  7  1  0  0  0  0
M  END
> <DATABASE_ID>
HMDB0000008

> <DATABASE_NAME>
hmdb

> <SMILES>
CCC(O)C(O)=O

> <INCHI_IDENTIFIER>
InChI=1S/C4H8O3/c1-2-3(5)4(6)7/h3,5H,2H2,1H3,(H,6,7)

> <INCHI_KEY>
AFENDNXGAFYKQO-UHFFFAOYSA-N

> <FORMULA>
C4H8O3

> <MOLECULAR_WEIGHT>
104.1045

> <EXACT_MASS>
104.047344122

> <JCHEM_ACCEPTOR_COUNT>
3

> <JCHEM_AVERAGE_POLARIZABILITY>
9.975162708419429

> <JCHEM_BIOAVAILABILITY>
1

> <JCHEM_DONOR_COUNT>
2

> <JCHEM_FORMAL_CHARGE>
0

> <JCHEM_GHOSE_FILTER>
0

> <JCHEM_IUPAC>
2-hydroxybutanoic acid

> <ALOGPS_LOGP>
-0.16

> <JCHEM_LOGP>
0.050692876999999914

> <ALOGPS_LOGS>
0.67

> <JCHEM_MDDR_LIKE_RULE>
0

> <JCHEM_NUMBER_OF_RINGS>
0

> <JCHEM_PHYSIOLOGICAL_CHARGE>
-1

> <JCHEM_PKA>
14.293154365104641

> <JCHEM_PKA_STRONGEST_ACIDIC>
3.989998858113875

> <JCHEM_PKA_STRONGEST_BASIC>
-3.7935876935907205

> <JCHEM_POLAR_SURFACE_AREA>
57.53

> <JCHEM_REFRACTIVITY>
23.3638

> <JCHEM_ROTATABLE_BOND_COUNT>
2

> <JCHEM_RULE_OF_FIVE>
1

> <ALOGPS_SOLUBILITY>
4.84e+02 g/l

> <JCHEM_TRADITIONAL_IUPAC>
α-hydroxybutyric acid

> <JCHEM_VEBER_RULE>
0

> <HMDB_ID>
HMDB0000008

> <GENERIC_NAME>
2-Hydroxybutyric acid

> <SYNONYMS>
(RS)-2-Hydroxybutyrate; (RS)-2-Hydroxybutyric acid; 2-Hydroxy-Butanoate; 2-Hydroxy-Butanoic acid; 2-Hydroxy-DL-Butyrate; 2-Hydroxy-DL-Butyric acid; 2-Hydroxy-N-butyrate; 2-Hydroxy-N-butyric acid; 2-Hydroxybutanoate; 2-Hydroxybutanoic acid; 2-Hydroxybutyrate; a-Hydroxy-N-butyrate; a-Hydroxy-N-butyric acid; a-Hydroxybutanoate; a-Hydroxybutanoic acid; a-Hydroxybutyrate; a-Hydroxybutyric acid; alpha-Hydroxy-N-butyrate; alpha-Hydroxy-N-butyric acid; alpha-Hydroxybutanoate; alpha-Hydroxybutanoic acid; alpha-Hydroxybutyrate; alpha-Hydroxybutyric acid; DL-2-Hydroxybutanoate; DL-2-Hydroxybutanoic acid; DL-a-Hydroxybutyrate; DL-a-Hydroxybutyric acid; DL-alpha-Hydroxybutyrate; DL-alpha-Hydroxybutyric acid

$$$$
2-Methoxyestrone.mol
  Mrv0541 02231218172D          

 25 28  0  0  0  0            999 V2000
   -1.7065   -1.3448    0.0000 C   0  0  0  0  0  0  0  0  0  0  0  0
   -2.4209   -1.7573    0.0000 O   0  0  0  0  0  0  0  0  0  0  0  0
   -1.7065   -0.5198    0.0000 C   0  0  0  0  0  0  0  0  0  0  0  0
   -0.9920   -0.1073    0.0000 C   0  0  0  0  0  0  0  0  0  0  0  0
   -0.9920   -1.7573    0.0000 C   0  0  0  0  0  0  0  0  0  0  0  0
   -0.2775   -1.3448    0.0000 C   0  0  0  0  0  0  0  0  0  0  0  0
    0.4369   -1.7573    0.0000 C   0  0  0  0  0  0  0  0  0  0  0  0
    1.1514   -1.3448    0.0000 C   0  0  0  0  0  0  0  0  0  0  0  0
    1.1514   -0.5198    0.0000 C   0  0  1  0  0  0  0  0  0  0  0  0
    1.8659   -0.1073    0.0000 C   0  0  2  0  0  0  0  0  0  0  0  0
    2.6505   -0.3622    0.0000 C   0  0  0  0  0  0  0  0  0  0  0  0
    3.1354    0.3052    0.0000 C   0  0  0  0  0  0  0  0  0  0  0  0
    2.6505    0.9727    0.0000 C   0  0  0  0  0  0  0  0  0  0  0  0
    2.9054    1.7573    0.0000 O   0  0  0  0  0  0  0  0  0  0  0  0
    1.8659    0.7177    0.0000 C   0  0  2  0  0  0  0  0  0  0  0  0
    1.8659    1.5427    0.0000 C   0  0  0  0  0  0  0  0  0  0  0  0
    1.1514    1.1302    0.0000 C   0  0  0  0  0  0  0  0  0  0  0  0
    0.4369    0.7177    0.0000 C   0  0  0  0  0  0  0  0  0  0  0  0
    0.4369   -0.1073    0.0000 C   0  0  2  0  0  0  0  0  0  0  0  0
   -0.2775   -0.5198    0.0000 C   0  0  0  0  0  0  0  0  0  0  0  0
   -2.4209   -0.1073    0.0000 O   0  0  0  0  0  0  0  0  0  0  0  0
   -3.1354   -0.5198    0.0000 C   0  0  0  0  0  0  0  0  0  0  0  0
    0.4369   -0.9323    0.0000 H   0  0  0  0  0  0  0  0  0  0  0  0
    1.1514    0.3052    0.0000 H   0  0  0  0  0  0  0  0  0  0  0  0
    1.8659   -0.9323    0.0000 H   0  0  0  0  0  0  0  0  0  0  0  0
  1  2  1  0  0  0  0
  1  3  1  0  0  0  0
  3  4  2  0  0  0  0
  1  5  2  0  0  0  0
  5  6  1  0  0  0  0
  6  7  1  0  0  0  0
  7  8  1  0  0  0  0
  8  9  1  0  0  0  0
  9 10  1  0  0  0  0
 10 11  1  0  0  0  0
 11 12  1  0  0  0  0
 12 13  1  0  0  0  0
 13 14  2  0  0  0  0
 13 15  1  0  0  0  0
 10 15  1  0  0  0  0
 15 16  1  1  0  0  0
 15 17  1  0  0  0  0
 17 18  1  0  0  0  0
 18 19  1  0  0  0  0
  9 19  1  0  0  0  0
 19 20  1  0  0  0  0
  4 20  1  0  0  0  0
  6 20  2  0  0  0  0
 21 22  1  0  0  0  0
  3 21  1  0  0  0  0
 19 23  1  6  0  0  0
  9 24  1  1  0  0  0
 10 25  1  6  0  0  0
M  END
> <DATABASE_ID>
HMDB0000010

> <DATABASE_NAME>
hmdb

> <SMILES>
[H][C@@]12CCC(=O)[C@@]1(C)CC[C@]1([H])C3=C(CC[C@@]21[H])C=C(O)C(OC)=C3

> <INCHI_IDENTIFIER>
InChI=1S/C19H24O3/c1-19-8-7-12-13(15(19)5-6-18(19)21)4-3-11-9-16(20)17(22-2)10-14(11)12/h9-10,12-13,15,20H,3-8H2,1-2H3/t12-,13+,15-,19-/m0/s1

> <INCHI_KEY>
WHEUWNKSCXYKBU-QPWUGHHJSA-N

> <FORMULA>
C19H24O3

> <MOLECULAR_WEIGHT>
300.3921

> <EXACT_MASS>
300.172544634

> <JCHEM_ACCEPTOR_COUNT>
3

> <JCHEM_AVERAGE_POLARIZABILITY>
34.33860792942589

> <JCHEM_BIOAVAILABILITY>
1

> <JCHEM_DONOR_COUNT>
1

> <JCHEM_FORMAL_CHARGE>
0

> <JCHEM_GHOSE_FILTER>
1

> <JCHEM_IUPAC>
(1S,10R,11S,15S)-5-hydroxy-4-methoxy-15-methyltetracyclo[8.7.0.0²,⁷.0¹¹,¹⁵]heptadeca-2(7),3,5-trien-14-one

> <ALOGPS_LOGP>
3.50

> <JCHEM_LOGP>
4.151357768333334

> <ALOGPS_LOGS>
-4.60

> <JCHEM_MDDR_LIKE_RULE>
0

> <JCHEM_NUMBER_OF_RINGS>
4

> <JCHEM_PHYSIOLOGICAL_CHARGE>
0

> <JCHEM_PKA>
19.957534419499726

> <JCHEM_PKA_STRONGEST_ACIDIC>
10.290800079568816

> <JCHEM_PKA_STRONGEST_BASIC>
-4.882521938422315

> <JCHEM_POLAR_SURFACE_AREA>
46.53

> <JCHEM_REFRACTIVITY>
85.54559999999998

> <JCHEM_ROTATABLE_BOND_COUNT>
1

> <JCHEM_RULE_OF_FIVE>
1

> <ALOGPS_SOLUBILITY>
7.49e-03 g/l

> <JCHEM_TRADITIONAL_IUPAC>
2-methoxyestrone

> <JCHEM_VEBER_RULE>
0

> <HMDB_ID>
HMDB0000010

> <GENERIC_NAME>
2-Methoxyestrone

> <SYNONYMS>
2-(8S,9S,13S,14S)-3-Hydroxy-2-methoxy-13-methyl-7,8,9,11,12,14,15,16-octahydro-6H-cyclopenta[a]phenanthren-17-one; 2-Hydroxyestrone 2-methyl ether; 2-Methoxy-17-oxoestra-1,3,5(10)-trien-3-ol; 2-Methoxy-3-hydroxyestra-1,3,5(10)-trien-17-one; 3-Hydroxy-2-methoxy-Estra-1,3,5(10)-trien-17-one; 3-Hydroxy-2-methoxyestra-1,3,5(10)-trien-17-one; Methoxy-Estrone

$$$$
(R)-3-Hydroxybutyric acid.mol
  Mrv0541 02231218172D          

  7  6  0  0  0  0            999 V2000
    0.7145   -0.2062    0.0000 C   0  0  0  0  0  0  0  0  0  0  0  0
    0.0000   -0.6186    0.0000 C   0  0  0  0  0  0  0  0  0  0  0  0
   -0.7145   -0.2062    0.0000 C   0  0  1  0  0  0  0  0  0  0  0  0
   -1.4288   -0.6186    0.0000 C   0  0  0  0  0  0  0  0  0  0  0  0
    0.7145    0.6186    0.0000 O   0  0  0  0  0  0  0  0  0  0  0  0
    1.4288   -0.6186    0.0000 O   0  0  0  0  0  0  0  0  0  0  0  0
   -0.7145    0.6186    0.0000 O   0  0  0  0  0  0  0  0  0  0  0  0
  1  2  1  0  0  0  0
  2  3  1  0  0  0  0
  3  4  1  0  0  0  0
  1  5  2  0  0  0  0
  1  6  1  0  0  0  0
  3  7  1  1  0  0  0
M  END
> <DATABASE_ID>
HMDB0000011

> <DATABASE_NAME>
hmdb

> <SMILES>
C[C@@H](O)CC(O)=O

> <INCHI_IDENTIFIER>
InChI=1S/C4H8O3/c1-3(5)2-4(6)7/h3,5H,2H2,1H3,(H,6,7)/t3-/m1/s1

> <INCHI_KEY>
WHBMMWSBFZVSSR-GSVOUGTGSA-N

> <FORMULA>
C4H8O3

> <MOLECULAR_WEIGHT>
104.1045

> <EXACT_MASS>
104.047344122

> <JCHEM_ACCEPTOR_COUNT>
3

> <JCHEM_AVERAGE_POLARIZABILITY>
9.95978897008179

> <JCHEM_BIOAVAILABILITY>
1

> <JCHEM_DONOR_COUNT>
2

> <JCHEM_FORMAL_CHARGE>
0

> <JCHEM_GHOSE_FILTER>
0

> <JCHEM_IUPAC>
(3R)-3-hydroxybutanoic acid

> <ALOGPS_LOGP>
-0.50

> <JCHEM_LOGP>
-0.38700599933333335

> <ALOGPS_LOGS>
0.71

> <JCHEM_MDDR_LIKE_RULE>
0

> <JCHEM_NUMBER_OF_RINGS>
0

> <JCHEM_PHYSIOLOGICAL_CHARGE>
-1

> <JCHEM_PKA>
15.695695082377142

> <JCHEM_PKA_STRONGEST_ACIDIC>
4.406291419798768

> <JCHEM_PKA_STRONGEST_BASIC>
-2.6205133689113183

> <JCHEM_POLAR_SURFACE_AREA>
57.53

> <JCHEM_REFRACTIVITY>
23.464100000000002

> <JCHEM_ROTATABLE_BOND_COUNT>
2

> <JCHEM_RULE_OF_FIVE>
1

> <ALOGPS_SOLUBILITY>
5.39e+02 g/l

> <JCHEM_TRADITIONAL_IUPAC>
(-)-3-hydroxybutyric acid

> <JCHEM_VEBER_RULE>
0

> <HMDB_ID>
HMDB0000011

> <GENERIC_NAME>
(R)-3-Hydroxybutyric acid

> <SYNONYMS>
(R)-(-)-b-Hydroxybutyrate; (R)-(-)-b-Hydroxybutyric acid; (R)-(-)-beta-Hydroxybutyrate; (R)-(-)-beta-Hydroxybutyric acid; (R)-3-Hydroxybutanoate; (R)-3-Hydroxybutanoic acid; (R)-3-Hydroxybutyrate; 3-D-Hydroxybutyrate; 3-D-Hydroxybutyric acid; 3-delta-Hydroxybutyrate; 3-delta-Hydroxybutyric acid; BHIB; D-(-)-3-Hydroxybutyrate; D-3-Hydroxybutyrate; D-3-Hydroxybutyric acid; D-beta-Hydroxybutyrate; delta-(-)-3-Hydroxybutyrate; delta-3-Hydroxybutyrate; delta-3-Hydroxybutyric acid; delta-beta-Hydroxybutyrate

$$$$

  Mrv0541 02231218172D          

 16 17  0  0  1  0            999 V2000
   -0.2643   -0.0240    0.0000 C   0  0  2  0  0  0  0  0  0  0  0  0
    0.5252    0.2403    0.0000 N   0  0  0  0  0  0  0  0  0  0  0  0
   -0.9062    0.4531    0.0000 O   0  0  0  0  0  0  0  0  0  0  0  0
   -0.5046   -0.8239    0.0000 C   0  0  0  0  0  0  0  0  0  0  0  0
    1.1431   -0.3089    0.0000 C   0  0  0  0  0  0  0  0  0  0  0  0
    0.6968    1.0436    0.0000 C   0  0  0  0  0  0  0  0  0  0  0  0
   -1.5756   -0.0377    0.0000 C   0  0  1  0  0  0  0  0  0  0  0  0
   -1.3285   -0.8239    0.0000 C   0  0  1  0  0  0  0  0  0  0  0  0
    1.9291   -0.0515    0.0000 N   0  0  0  0  0  0  0  0  0  0  0  0
    0.9784   -1.1190    0.0000 O   0  0  0  0  0  0  0  0  0  0  0  0
    1.4761    1.3044    0.0000 C   0  0  0  0  0  0  0  0  0  0  0  0
   -2.3617    0.2128    0.0000 C   0  0  0  0  0  0  0  0  0  0  0  0
   -1.8193   -1.4898    0.0000 O   0  0  0  0  0  0  0  0  0  0  0  0
    2.0974    0.7552    0.0000 C   0  0  0  0  0  0  0  0  0  0  0  0
   -2.9693   -0.3432    0.0000 O   0  0  0  0  0  0  0  0  0  0  0  0
    2.8800    1.0126    0.0000 O   0  0  0  0  0  0  0  0  0  0  0  0
  1  2  1  1  0  0  0
  1  3  1  0  0  0  0
  1  4  1  0  0  0  0
  2  5  1  0  0  0  0
  2  6  1  0  0  0  0
  3  7  1  0  0  0  0
  4  8  1  0  0  0  0
  5  9  1  0  0  0  0
  5 10  2  0  0  0  0
  6 11  2  0  0  0  0
  7 12  1  1  0  0  0
  8 13  1  6  0  0  0
  9 14  1  0  0  0  0
 12 15  1  0  0  0  0
 14 16  2  0  0  0  0
  7  8  1  0  0  0  0
 11 14  1  0  0  0  0
M  END
> <DATABASE_ID>
HMDB0000012

> <DATABASE_NAME>
hmdb

> <SMILES>
OC[C@H]1O[C@H](C[C@@H]1O)N1C=CC(=O)NC1=O

> <INCHI_IDENTIFIER>
InChI=1S/C9H12N2O5/c12-4-6-5(13)3-8(16-6)11-2-1-7(14)10-9(11)15/h1-2,5-6,8,12-13H,3-4H2,(H,10,14,15)/t5-,6+,8+/m0/s1

> <INCHI_KEY>
MXHRCPNRJAMMIM-SHYZEUOFSA-N

> <FORMULA>
C9H12N2O5

> <MOLECULAR_WEIGHT>
228.202

> <EXACT_MASS>
228.074621504

> <JCHEM_ACCEPTOR_COUNT>
5

> <JCHEM_AVERAGE_POLARIZABILITY>
21.057478159506356

> <JCHEM_BIOAVAILABILITY>
1

> <JCHEM_DONOR_COUNT>
3

> <JCHEM_FORMAL_CHARGE>
0

> <JCHEM_GHOSE_FILTER>
0

> <JCHEM_IUPAC>
1-[(2R,4S,5R)-4-hydroxy-5-(hydroxymethyl)oxolan-2-yl]-1,2,3,4-tetrahydropyrimidine-2,4-dione

> <ALOGPS_LOGP>
-1.49

> <JCHEM_LOGP>
-1.514604078666666

> <ALOGPS_LOGS>
-0.40

> <JCHEM_MDDR_LIKE_RULE>
0

> <JCHEM_NUMBER_OF_RINGS>
2

> <JCHEM_PHYSIOLOGICAL_CHARGE>
0

> <JCHEM_PKA>
13.907903439872065

> <JCHEM_PKA_STRONGEST_ACIDIC>
9.705729612726527

> <JCHEM_PKA_STRONGEST_BASIC>
-2.9780835884997945

> <JCHEM_POLAR_SURFACE_AREA>
99.1

> <JCHEM_REFRACTIVITY>
51.05490000000001

> <JCHEM_ROTATABLE_BOND_COUNT>
2

> <JCHEM_RULE_OF_FIVE>
1

> <ALOGPS_SOLUBILITY>
9.06e+01 g/l

> <JCHEM_TRADITIONAL_IUPAC>
2'-deoxyuridine

> <JCHEM_VEBER_RULE>
0

> <HMDB_ID>
HMDB0000012

> <GENERIC_NAME>
Deoxyuridine

> <SYNONYMS>
1-(2-Deoxy-beta-D-erythro-pentofuranosyl)-2,4(1H,3H)-Pyrimidinedione; 1-(2-Deoxy-beta-D-ribofuranosyl)-2,4(1H,3H)-Pyrimidinedione; 1-(2-Deoxy-beta-delta-erythro-pentofuranosyl)-2,4(1H,3H)-Pyrimidinedione; 1-(2-Deoxy-beta-delta-ribofuranosyl)-2,4(1H,3H)-Pyrimidinedione; 1-(2-Deoxy-D-erythro-pentofuranosyl)uracil; 1-(2-Deoxy-delta-erythro-pentofuranosyl)uracil; 2'-Deoxyuridine; 2'-Desoxyuridine; Deoxyribose uracil; Desoxyuridine; Uracil deoxyriboside; Uracil desoxyuridine

$$$$

  Mrv0541 02231219562D          

 13 14  0  0  0  0            999 V2000
   29.9950  -11.9735    0.0000 N   0  0  0  0  0  0  0  0  0  0  0  0
   28.6752  -15.0398    0.0000 N   0  0  0  0  0  0  0  0  0  0  0  0
   29.7387  -12.7576    0.0000 C   0  0  0  0  0  0  0  0  0  0  0  0
   28.9314  -12.9278    0.0000 C   0  0  0  0  0  0  0  0  0  0  0  0
   27.8946  -14.7884    0.0000 C   0  0  0  0  0  0  0  0  0  0  0  0
   28.6752  -13.7119    0.0000 C   0  0  0  0  0  0  0  0  0  0  0  0
   27.8946  -13.9633    0.0000 C   0  0  0  0  0  0  0  0  0  0  0  0
   29.1567  -14.3759    0.0000 C   0  0  0  0  0  0  0  0  0  0  0  0
   27.1801  -15.2008    0.0000 C   0  0  0  0  0  0  0  0  0  0  0  0
   27.1801  -13.5508    0.0000 C   0  0  0  0  0  0  0  0  0  0  0  0
   26.4655  -14.7884    0.0000 C   0  0  0  0  0  0  0  0  0  0  0  0
   26.4655  -13.9633    0.0000 C   0  0  0  0  0  0  0  0  0  0  0  0
   30.4956  -11.8680    0.0000 C   0  0  0  0  0  0  0  0  0  0  0  0
  1  3  1  0  0  0  0
  1 13  1  0  0  0  0
  2  5  1  0  0  0  0
  2  8  1  0  0  0  0
  3  4  1  0  0  0  0
  4  6  1  0  0  0  0
  5  7  1  0  0  0  0
  5  9  2  0  0  0  0
  6  7  1  0  0  0  0
  6  8  2  0  0  0  0
  7 10  2  0  0  0  0
  9 11  1  0  0  0  0
 10 12  1  0  0  0  0
 11 12  2  0  0  0  0
M  END
> <DATABASE_ID>
HMDB0004370

> <DATABASE_NAME>
hmdb

> <SMILES>
CNCCC1=CNC2=CC=CC=C12

> <INCHI_IDENTIFIER>
InChI=1S/C11H14N2/c1-12-7-6-9-8-13-11-5-3-2-4-10(9)11/h2-5,8,12-13H,6-7H2,1H3

> <INCHI_KEY>
NCIKQJBVUNUXLW-UHFFFAOYSA-N

> <FORMULA>
C11H14N2

> <MOLECULAR_WEIGHT>
174.2423

> <EXACT_MASS>
174.115698458

> <JCHEM_ACCEPTOR_COUNT>
1

> <JCHEM_AVERAGE_POLARIZABILITY>
20.418245240233116

> <JCHEM_BIOAVAILABILITY>
1

> <JCHEM_DONOR_COUNT>
2

> <JCHEM_FORMAL_CHARGE>
0

> <JCHEM_GHOSE_FILTER>
1

> <JCHEM_IUPAC>
[2-(1H-indol-3-yl)ethyl](methyl)amine

> <ALOGPS_LOGP>
2.02

> <JCHEM_LOGP>
1.9190178436666665

> <ALOGPS_LOGS>
-2.57

> <JCHEM_MDDR_LIKE_RULE>
0

> <JCHEM_NUMBER_OF_RINGS>
2

> <JCHEM_PHYSIOLOGICAL_CHARGE>
1

> <JCHEM_PKA_STRONGEST_ACIDIC>
17.16782291158749

> <JCHEM_PKA_STRONGEST_BASIC>
10.310210734339782

> <JCHEM_POLAR_SURFACE_AREA>
27.82

> <JCHEM_REFRACTIVITY>
55.147500000000015

> <JCHEM_ROTATABLE_BOND_COUNT>
3

> <JCHEM_RULE_OF_FIVE>
1

> <ALOGPS_SOLUBILITY>
4.70e-01 g/l

> <JCHEM_TRADITIONAL_IUPAC>
methyltryptamine

> <JCHEM_VEBER_RULE>
1

> <HMDB_ID>
HMDB0004370

> <GENERIC_NAME>
N-Methyltryptamine

> <SYNONYMS>
1-Methyl-2-(3-indolyl)ethylamine; 2-(1H-Indol-3-yl)-N-methylethanamine; 3-(2-(Methylamino)ethyl)indole; Dipterine; Dl-Methyltryptamine; Methyltryptamine; N-Methylindoleethylamine; N-Monomethyltryptamine; N-Omega-methyltryptamine

$$$$

  Mrv0541 02231220492D          

 29 31  0  0  1  0            999 V2000
   16.9509  -11.8217    0.0000 O   0  0  0  0  0  0  0  0  0  0  0  0
   16.9509   -6.8714    0.0000 C   0  0  2  0  0  0  0  0  0  0  0  0
   17.7315   -6.6202    0.0000 C   0  0  2  0  0  0  0  0  0  0  0  0
   16.9509   -7.6965    0.0000 C   0  0  0  0  0  0  0  0  0  0  0  0
   18.2130   -7.2841    0.0000 C   0  0  0  0  0  0  0  0  0  0  0  0
   17.7315   -7.9479    0.0000 C   0  0  0  0  0  0  0  0  0  0  0  0
   16.2364   -6.4590    0.0000 C   0  0  0  0  0  0  0  0  0  0  0  0
   17.9878   -5.8359    0.0000 C   0  0  1  0  0  0  0  0  0  0  0  0
   16.2364   -8.1091    0.0000 C   0  0  0  0  0  0  0  0  0  0  0  0
   16.9509   -6.0464    0.0000 C   0  0  0  0  0  0  0  0  0  0  0  0
   15.5220   -6.8714    0.0000 C   0  0  0  0  0  0  0  0  0  0  0  0
   15.5220   -7.6965    0.0000 C   0  0  0  0  0  0  0  0  0  0  0  0
   18.7951   -5.6657    0.0000 C   0  0  0  0  0  0  0  0  0  0  0  0
   17.4368   -5.2219    0.0000 C   0  0  0  0  0  0  0  0  0  0  0  0
   16.2364   -8.9341    0.0000 C   0  0  0  0  0  0  0  0  0  0  0  0
   19.0515   -4.8815    0.0000 C   0  0  0  0  0  0  0  0  0  0  0  0
   19.8587   -4.7115    0.0000 C   0  0  0  0  0  0  0  0  0  0  0  0
   15.5220   -9.3466    0.0000 C   0  0  0  0  0  0  0  0  0  0  0  0
   20.1150   -3.9272    0.0000 C   0  0  0  0  0  0  0  0  0  0  0  0
   15.5220  -10.1716    0.0000 C   0  0  0  0  0  0  0  0  0  0  0  0
   16.2364  -10.5841    0.0000 C   0  0  0  0  0  0  0  0  0  0  0  0
   19.5640   -3.3131    0.0000 C   0  0  0  0  0  0  0  0  0  0  0  0
   20.9223   -3.7571    0.0000 C   0  0  0  0  0  0  0  0  0  0  0  0
   14.8073  -10.5841    0.0000 C   0  0  0  0  0  0  0  0  0  0  0  0
   16.2364  -11.4091    0.0000 C   0  0  2  0  0  0  0  0  0  0  0  0
   14.8073  -11.4091    0.0000 C   0  0  0  0  0  0  0  0  0  0  0  0
   15.5220  -11.8217    0.0000 C   0  0  0  0  0  0  0  0  0  0  0  0
   14.0929  -10.1716    0.0000 C   0  0  0  0  0  0  0  0  0  0  0  0
   17.0382   -8.5168    0.0000 H   0  0  0  0  0  0  0  0  0  0  0  0
 25  1  1  1  0  0  0
  2  3  1  0  0  0  0
  2  4  1  0  0  0  0
  2  7  1  0  0  0  0
  2 10  1  1  0  0  0
  3  5  1  0  0  0  0
  3  8  1  1  0  0  0
  4  6  1  0  0  0  0
  4  9  1  0  0  0  0
  5  6  1  0  0  0  0
  7 11  1  0  0  0  0
  8 13  1  0  0  0  0
  8 14  1  6  0  0  0
  9 12  1  0  0  0  0
  9 15  2  0  0  0  0
 11 12  1  0  0  0  0
 13 16  1  0  0  0  0
 15 18  1  0  0  0  0
 16 17  1  0  0  0  0
 17 19  1  0  0  0  0
 18 20  2  0  0  0  0
 19 22  1  0  0  0  0
 19 23  1  0  0  0  0
 20 21  1  0  0  0  0
 20 24  1  0  0  0  0
 21 25  1  0  0  0  0
 24 26  1  0  0  0  0
 24 28  2  0  0  0  0
 25 27  1  0  0  0  0
 26 27  1  0  0  0  0
 29  4  1  6  0  0  0
M  END
> <DATABASE_ID>
HMDB0006719

> <DATABASE_NAME>
hmdb

> <SMILES>
CC(C)CCC[C@@H](C)[C@H]1CCC2([H])\C(CCC[C@]12C)=C\C=C1/C[C@@H](O)CCC1=C

> <INCHI_IDENTIFIER>
InChI=1S/C27H44O/c1-19(2)8-6-9-21(4)25-15-16-26-22(10-7-17-27(25,26)5)12-13-23-18-24(28)14-11-20(23)3/h12-13,19,21,24-26,28H,3,6-11,14-18H2,1-2,4-5H3/b22-12+,23-13+/t21-,24+,25-,26?,27-/m1/s1

> <INCHI_KEY>
QYSXJUFSXHHAJI-YYJGPZIQSA-N

> <FORMULA>
C27H44O

> <MOLECULAR_WEIGHT>
384.6377

> <EXACT_MASS>
384.33921603

> <JCHEM_ACCEPTOR_COUNT>
1

> <JCHEM_AVERAGE_POLARIZABILITY>
49.53937104020938

> <JCHEM_BIOAVAILABILITY>
1

> <JCHEM_DONOR_COUNT>
1

> <JCHEM_FORMAL_CHARGE>
0

> <JCHEM_GHOSE_FILTER>
0

> <JCHEM_IUPAC>
(1S,3E)-3-{2-[(1R,4E,7aR)-7a-methyl-1-[(2R)-6-methylheptan-2-yl]-octahydro-1H-inden-4-ylidene]ethylidene}-4-methylidenecyclohexan-1-ol

> <ALOGPS_LOGP>
7.98

> <JCHEM_LOGP>
7.125460754666667

> <ALOGPS_LOGS>
-6.01

> <JCHEM_MDDR_LIKE_RULE>
1

> <JCHEM_NUMBER_OF_RINGS>
3

> <JCHEM_PHYSIOLOGICAL_CHARGE>
0

> <JCHEM_PKA_STRONGEST_ACIDIC>
18.384341369959035

> <JCHEM_PKA_STRONGEST_BASIC>
-1.3184890847799178

> <JCHEM_POLAR_SURFACE_AREA>
20.23

> <JCHEM_REFRACTIVITY>
123.22449999999998

> <JCHEM_ROTATABLE_BOND_COUNT>
6

> <JCHEM_RULE_OF_FIVE>
0

> <ALOGPS_SOLUBILITY>
3.80e-04 g/l

> <JCHEM_TRADITIONAL_IUPAC>
trans-vitamin D3

> <JCHEM_VEBER_RULE>
1

> <HMDB_ID>
HMDB0006719

> <GENERIC_NAME>
5,6-trans-Vitamin D3

> <SYNONYMS>
3-[(2E)-2-[(1R,3aS,7aR)-1-[(1R)-1,5-dimethylhexyl]octahydro-7a-methyl-4H-inden-4-ylidene]ethylidene]-4-methylene-Cyclohexanol; 5,6-trans-Cholecalciferol; 5,6-trans-Vitamin D3; trans-Vitamin D3

$$$$
